
     RDKit          3D

 26 28  0  0  0  0  0  0  0  0999 V2000
   -0.7673   -2.6572    1.3176 C   0  0  0  0  0  0  0  0  0  0  0  0
   -1.9916   -2.2299    0.5793 C   0  0  0  0  0  0  0  0  0  0  0  0
   -2.1845   -1.0985   -0.1262 C   0  0  0  0  0  0  0  0  0  0  0  0
   -3.5988   -1.1885   -0.5738 C   0  0  0  0  0  0  0  0  0  0  0  0
   -4.1404   -0.4554   -1.3818 O   0  0  0  0  0  0  0  0  0  0  0  0
   -4.1602   -2.2847    0.0577 N   0  0  0  0  0  0  0  0  0  0  0  0
   -3.1318   -3.0267    0.6357 N   0  0  0  0  0  0  0  0  0  0  0  0
   -1.3544    0.0606   -0.5632 C   0  0  2  0  0  0  0  0  0  0  0  0
    0.1435   -0.2149   -0.7308 C   0  0  0  0  0  0  0  0  0  0  0  0
    1.1227    0.0758    0.2409 C   0  0  0  0  0  0  0  0  0  0  0  0
    2.4762   -0.2266    0.0358 C   0  0  0  0  0  0  0  0  0  0  0  0
    2.8687   -0.8190   -1.1749 C   0  0  0  0  0  0  0  0  0  0  0  0
    1.9094   -1.1478   -2.1365 C   0  0  0  0  0  0  0  0  0  0  0  0
    0.5636   -0.8449   -1.9182 C   0  0  0  0  0  0  0  0  0  0  0  0
    2.3810   -2.0051   -3.7632 Br  0  0  0  0  0  0  0  0  0  0  0  0
    4.1837   -1.1575   -1.3928 O   0  0  0  0  0  0  0  0  0  0  0  0
    4.9396   -0.0080   -1.7740 C   0  0  0  0  0  0  0  0  0  0  0  0
    3.4717    0.0097    0.9493 O   0  0  0  0  0  0  0  0  0  0  0  0
    3.0906    0.5030    2.2268 C   0  0  0  0  0  0  0  0  0  0  0  0
   -1.5298    1.2996    0.2699 C   0  0  0  0  0  0  0  0  0  0  0  0
   -1.5601    2.6226   -0.1596 C   0  0  0  0  0  0  0  0  0  0  0  0
   -1.7706    3.3889    0.9579 N   0  0  0  0  0  0  0  0  0  0  0  0
   -1.8621    2.6712    2.0915 N   0  0  0  0  0  0  0  0  0  0  0  0
   -1.7355    1.4293    1.6531 C   0  0  0  0  0  0  0  0  0  0  0  0
   -1.7927    0.5018    2.6037 O   0  0  0  0  0  0  0  0  0  0  0  0
   -1.4255    3.2191   -1.5099 C   0  0  0  0  0  0  0  0  0  0  0  0
  1  2  1  0
  2  3  2  0
  3  4  1  0
  4  5  2  0
  4  6  1  0
  6  7  1  0
  8  3  1  1
  8  9  1  0
  9 10  2  0
 10 11  1  0
 11 12  2  0
 12 13  1  0
 13 14  2  0
 13 15  1  0
 12 16  1  0
 16 17  1  0
 11 18  1  0
 18 19  1  0
  8 20  1  0
 20 21  2  0
 21 22  1  0
 22 23  1  0
 23 24  2  0
 24 25  1  0
 21 26  1  0
  7  2  1  0
 14  9  1  0
 24 20  1  0
M  END
$$$$
