
     RDKit          3D

 25 27  0  0  0  0  0  0  0  0999 V2000
    3.1990    1.8432   -1.4617 C   0  0  0  0  0  0  0  0  0  0  0  0
    3.5216    0.5405   -0.8075 C   0  0  0  0  0  0  0  0  0  0  0  0
    2.6416   -0.0449    0.1999 C   0  0  0  0  0  0  0  0  0  0  0  0
    3.1769   -1.3146    0.7361 C   0  0  0  0  0  0  0  0  0  0  0  0
    2.7108   -2.0684    1.6660 N   0  0  0  0  0  0  0  0  0  0  0  0
    1.5351   -1.6339    2.2490 C   0  0  0  0  0  0  0  0  0  0  0  0
    0.9772   -2.4527    3.6395 S   0  0  0  0  0  0  0  0  0  0  0  0
    0.8833   -0.5059    1.6935 N   0  0  0  0  0  0  0  0  0  0  0  0
    1.4626    0.3530    0.7268 C   0  0  0  0  0  0  0  0  0  0  0  0
    0.7618    1.3948    0.5270 O   0  0  0  0  0  0  0  0  0  0  0  0
   -0.3858   -0.0713    2.2079 N   0  0  0  0  0  0  0  0  0  0  0  0
   -1.5084   -0.7155    1.6863 C   0  0  0  0  0  0  0  0  0  0  0  0
   -1.5585   -1.8956    1.3416 O   0  0  0  0  0  0  0  0  0  0  0  0
   -2.7226    0.2100    1.6541 C   0  0  0  0  0  0  0  0  0  0  0  0
   -3.6602   -0.0915    0.5181 C   0  0  0  0  0  0  0  0  0  0  0  0
   -4.9742   -0.5249    0.5586 C   0  0  0  0  0  0  0  0  0  0  0  0
   -5.4353   -0.6429   -0.7721 C   0  0  0  0  0  0  0  0  0  0  0  0
   -4.3956   -0.2808   -1.5970 C   0  0  0  0  0  0  0  0  0  0  0  0
   -3.3173    0.0462   -0.8112 N   0  0  0  0  0  0  0  0  0  0  0  0
   -2.0286    0.4696   -1.3257 C   0  0  0  0  0  0  0  0  0  0  0  0
    4.6785   -1.6898   -0.0965 S   0  0  0  0  0  0  0  0  0  0  0  0
    4.6120   -0.2149   -1.0502 C   0  0  0  0  0  0  0  0  0  0  0  0
    5.7243    0.1328   -2.0606 C   0  0  0  0  0  0  0  0  0  0  0  0
    5.3875    0.0968   -3.2819 O   0  0  0  0  0  0  0  0  0  0  0  0
    6.8510    0.4212   -1.5576 O   0  0  0  0  0  0  0  0  0  0  0  0
  1  2  1  0
  2  3  1  0
  3  4  1  0
  4  5  2  0
  5  6  1  0
  6  7  2  0
  6  8  1  0
  8  9  1  0
  9 10  1  0
  8 11  1  0
 11 12  1  0
 12 13  2  0
 12 14  1  0
 14 15  1  0
 15 16  2  0
 16 17  1  0
 17 18  2  0
 18 19  1  0
 19 20  1  0
  4 21  1  0
 21 22  1  0
 22 23  1  0
 23 24  2  0
 23 25  1  0
 22  2  2  0
  9  3  2  0
 19 15  1  0
M  CHG  2  10  -1  25  -1
M  END
$$$$
