
     RDKit          3D

 18 18  0  0  0  0  0  0  0  0999 V2000
    4.1529   -2.2649   -0.0274 C   0  0  0  0  0  0  0  0  0  0  0  0
    4.6186   -0.9896   -0.7070 C   0  0  0  0  0  0  0  0  0  0  0  0
    3.5792    0.0134   -0.7280 N   0  0  0  0  0  0  0  0  0  0  0  0
    3.3236    0.8266    0.3578 C   0  0  0  0  0  0  0  0  0  0  0  0
    3.9939    0.8237    1.3870 O   0  0  0  0  0  0  0  0  0  0  0  0
    2.0730    1.6931    0.1932 C   0  0  0  0  0  0  0  0  0  0  0  0
    0.8730    0.9149    0.5105 N   0  0  0  0  0  0  0  0  0  0  0  0
    0.4151    0.9407    1.9015 C   0  0  0  0  0  0  0  0  0  0  0  0
   -0.3412    2.2172    2.2385 C   0  0  0  0  0  0  0  0  0  0  0  0
    0.3243    0.1317   -0.4973 C   0  0  0  0  0  0  0  0  0  0  0  0
    0.8554    0.0684   -1.6141 O   0  0  0  0  0  0  0  0  0  0  0  0
   -0.9366   -0.6985   -0.2121 C   0  0  0  0  0  0  0  0  0  0  0  0
   -2.1062    0.1546    0.0801 N   0  0  0  0  0  0  0  0  0  0  0  0
   -2.5154    0.9695   -1.0878 C   0  0  0  0  0  0  0  0  0  0  0  0
   -3.1990    0.1791   -2.2276 C   0  0  0  0  0  0  0  0  0  0  0  0
   -4.3389   -0.6227   -1.7624 N   0  0  0  0  0  0  0  0  0  0  0  0
   -3.9492   -1.4626   -0.6234 C   0  0  0  0  0  0  0  0  0  0  0  0
   -3.2624   -0.6624    0.5080 C   0  0  0  0  0  0  0  0  0  0  0  0
  1  2  1  0
  2  3  1  0
  3  4  1  0
  4  5  2  0
  4  6  1  0
  6  7  1  0
  7  8  1  0
  8  9  1  0
  7 10  1  0
 10 11  2  0
 10 12  1  0
 12 13  1  0
 13 14  1  0
 14 15  1  0
 15 16  1  0
 16 17  1  0
 17 18  1  0
 18 13  1  0
M  END
$$$$
