
     RDKit          3D

 18 18  0  0  0  0  0  0  0  0999 V2000
    4.5463   -1.3561   -1.9013 C   0  0  0  0  0  0  0  0  0  0  0  0
    3.6821   -0.3413   -1.3629 N   0  0  0  0  0  0  0  0  0  0  0  0
    3.7227    0.9556   -1.8174 C   0  0  0  0  0  0  0  0  0  0  0  0
    4.5489    1.3739   -2.6240 O   0  0  0  0  0  0  0  0  0  0  0  0
    2.6425    1.8429   -1.2423 C   0  0  0  0  0  0  0  0  0  0  0  0
    1.3012    1.5633   -1.9134 C   0  0  0  0  0  0  0  0  0  0  0  0
    0.2379    1.2768   -0.9645 N   0  0  0  0  0  0  0  0  0  0  0  0
    0.2262    0.0914   -0.2680 C   0  0  0  0  0  0  0  0  0  0  0  0
    1.1457   -0.7200   -0.3627 O   0  0  0  0  0  0  0  0  0  0  0  0
   -0.9014   -0.1002    0.5147 N   0  0  0  0  0  0  0  0  0  0  0  0
   -1.6360    1.0131    1.1258 C   0  0  0  0  0  0  0  0  0  0  0  0
   -3.0885    0.6593    1.4174 C   0  0  0  0  0  0  0  0  0  0  0  0
   -3.1960   -0.6249    2.2449 C   0  0  0  0  0  0  0  0  0  0  0  0
   -2.4418   -1.7531    1.5383 C   0  0  0  0  0  0  0  0  0  0  0  0
   -0.9981   -1.3645    1.2423 C   0  0  0  0  0  0  0  0  0  0  0  0
   -4.6798   -0.9378    2.5046 C   0  0  0  0  0  0  0  0  0  0  0  0
   -5.3530    0.0278    2.9669 O   0  0  0  0  0  0  0  0  0  0  0  0
   -5.0519   -2.1170    2.2536 O   0  0  0  0  0  0  0  0  0  0  0  0
  1  2  1  0
  2  3  1  0
  3  4  2  0
  3  5  1  0
  5  6  1  0
  6  7  1  0
  7  8  1  0
  8  9  2  0
  8 10  1  0
 10 11  1  0
 11 12  1  0
 12 13  1  0
 13 14  1  0
 14 15  1  0
 13 16  1  0
 16 17  2  0
 16 18  1  0
 15 10  1  0
M  CHG  1  18  -1
M  END
$$$$
