
     RDKit          3D

 16 16  0  0  0  0  0  0  0  0999 V2000
    2.0763    0.5716    0.7755 C   0  0  0  0  0  0  0  0  0  0  0  0
    3.4421    0.7974    0.9689 C   0  0  0  0  0  0  0  0  0  0  0  0
    4.3706    0.4590   -0.0016 C   0  0  0  0  0  0  0  0  0  0  0  0
    3.9139   -0.1127   -1.1777 C   0  0  0  0  0  0  0  0  0  0  0  0
    2.5506   -0.3432   -1.3822 C   0  0  0  0  0  0  0  0  0  0  0  0
    1.5846   -0.0091   -0.4133 C   0  0  0  0  0  0  0  0  0  0  0  0
    0.2761   -0.2600   -0.6746 N   0  0  0  0  0  0  0  0  0  0  0  0
   -0.9071    0.0936    0.3325 S   0  0  0  0  0  0  0  0  0  0  0  0
   -1.1778    1.5186    0.5166 O   0  0  0  0  0  0  0  0  0  0  0  0
   -0.9692   -0.7126    1.5498 O   0  0  0  0  0  0  0  0  0  0  0  0
   -2.2947   -0.4844   -0.6486 C   0  0  0  0  0  0  0  0  0  0  0  0
   -3.6080   -0.2969    0.1002 C   0  0  0  0  0  0  0  0  0  0  0  0
   -4.7695   -0.6433   -0.7409 N   0  0  0  0  0  0  0  0  0  0  0  0
    2.1704   -0.9006   -2.5459 F   0  0  0  0  0  0  0  0  0  0  0  0
    4.8024   -0.4453   -2.1272 F   0  0  0  0  0  0  0  0  0  0  0  0
    3.8680    1.3516    2.1130 F   0  0  0  0  0  0  0  0  0  0  0  0
  1  2  2  0
  2  3  1  0
  3  4  2  0
  4  5  1  0
  5  6  2  0
  6  7  1  0
  7  8  1  0
  8  9  2  0
  8 10  2  0
  8 11  1  0
 11 12  1  0
 12 13  1  0
  5 14  1  0
  4 15  1  0
  2 16  1  0
  6  1  1  0
M  CHG  1   7  -1
M  END
$$$$
