
     RDKit          3D

 24 26  0  0  0  0  0  0  0  0999 V2000
   -6.0169    0.3612    1.7376 C   0  0  0  0  0  0  0  0  0  0  0  0
   -5.0179   -0.3227    0.9549 N   0  0  0  0  0  0  0  0  0  0  0  0
   -4.1914    0.2032    0.0070 C   0  0  0  0  0  0  0  0  0  0  0  0
   -3.3983   -0.8356   -0.4361 C   0  0  0  0  0  0  0  0  0  0  0  0
   -3.8264   -1.9482    0.3083 C   0  0  0  0  0  0  0  0  0  0  0  0
   -4.8302   -1.6469    1.1420 N   0  0  0  0  0  0  0  0  0  0  0  0
   -2.3404   -0.6857   -1.4755 C   0  0  1  0  0  0  0  0  0  0  0  0
   -2.5584    0.6389   -2.2564 C   0  0  0  0  0  0  0  0  0  0  0  0
   -2.8769    1.8307   -1.3261 C   0  0  0  0  0  0  0  0  0  0  0  0
   -4.1474    1.6049   -0.4834 C   0  0  0  0  0  0  0  0  0  0  0  0
   -1.0684   -0.7091   -0.8084 N   0  0  0  0  0  0  0  0  0  0  0  0
    0.1037   -0.8611   -1.5271 C   0  0  0  0  0  0  0  0  0  0  0  0
    0.1682   -1.2773   -2.6765 O   0  0  0  0  0  0  0  0  0  0  0  0
    1.3682   -0.4185   -0.7220 C   0  0  0  0  0  0  0  0  0  0  0  0
    2.3753   -1.2409   -0.7310 N   0  0  0  0  0  0  0  0  0  0  0  0
    3.5442   -0.9159   -0.0239 C   0  0  0  0  0  0  0  0  0  0  0  0
    4.0574   -1.8296    0.8934 C   0  0  0  0  0  0  0  0  0  0  0  0
    5.2506   -1.5556    1.5594 C   0  0  0  0  0  0  0  0  0  0  0  0
    5.9087   -0.3690    1.2717 C   0  0  0  0  0  0  0  0  0  0  0  0
    5.4693    0.5408    0.3786 N   0  0  0  0  0  0  0  0  0  0  0  0
    4.2912    0.2424   -0.2395 C   0  0  0  0  0  0  0  0  0  0  0  0
    7.0922   -0.1494    1.9546 O   0  0  0  0  0  0  0  0  0  0  0  0
    7.6727    1.1129    1.6455 C   0  0  0  0  0  0  0  0  0  0  0  0
    1.1205    0.6860   -0.1886 O   0  0  0  0  0  0  0  0  0  0  0  0
  1  2  1  0
  2  3  1  0
  3  4  2  0
  4  5  1  0
  5  6  2  0
  4  7  1  0
  7  8  1  0
  8  9  1  0
  9 10  1  0
  7 11  1  1
 11 12  1  0
 12 13  2  0
 12 14  1  0
 14 15  2  0
 15 16  1  0
 16 17  2  0
 17 18  1  0
 18 19  2  0
 19 20  1  0
 20 21  2  0
 19 22  1  0
 22 23  1  0
 14 24  1  0
  6  2  1  0
 10  3  1  0
 21 16  1  0
M  CHG  1  24  -1
M  END
$$$$
