
     RDKit          3D

 24 27  0  0  0  0  0  0  0  0999 V2000
    7.8527   -0.1926   -0.8836 C   0  0  0  0  0  0  0  0  0  0  0  0
    6.6212    0.1121   -1.5122 C   0  0  0  0  0  0  0  0  0  0  0  0
    5.6233   -0.1928   -0.6055 C   0  0  0  0  0  0  0  0  0  0  0  0
    6.1882   -0.6693    0.5464 O   0  0  0  0  0  0  0  0  0  0  0  0
    7.5337   -0.6645    0.3671 C   0  0  0  0  0  0  0  0  0  0  0  0
    4.0874   -0.0245   -0.8456 C   0  0  0  0  0  0  0  0  0  0  0  0
    3.1514   -0.3513    0.1101 N   0  0  0  0  0  0  0  0  0  0  0  0
    2.0139   -0.0694   -0.4729 C   0  0  0  0  0  0  0  0  0  0  0  0
    2.2575    0.4095   -1.7300 N   0  0  0  0  0  0  0  0  0  0  0  0
    3.5746    0.4471   -1.9936 N   0  0  0  0  0  0  0  0  0  0  0  0
    0.7742   -0.2311    0.0897 N   0  0  0  0  0  0  0  0  0  0  0  0
   -0.3745    0.1177   -0.5849 C   0  0  0  0  0  0  0  0  0  0  0  0
   -0.3909    0.6180   -1.7073 O   0  0  0  0  0  0  0  0  0  0  0  0
   -1.6586   -0.1157    0.1333 C   0  0  0  0  0  0  0  0  0  0  0  0
   -1.8067   -1.1228    1.0931 C   0  0  0  0  0  0  0  0  0  0  0  0
   -3.0349   -1.2938    1.7392 C   0  0  0  0  0  0  0  0  0  0  0  0
   -4.1294   -0.4823    1.4178 C   0  0  0  0  0  0  0  0  0  0  0  0
   -3.9884    0.5081    0.4377 C   0  0  0  0  0  0  0  0  0  0  0  0
   -2.7547    0.6948   -0.1947 C   0  0  0  0  0  0  0  0  0  0  0  0
   -5.0408    1.3649    0.0863 N   0  0  0  0  0  0  0  0  0  0  0  0
   -6.3503    1.2384    0.4613 C   0  0  0  0  0  0  0  0  0  0  0  0
   -7.1534    2.1172    0.1415 O   0  0  0  0  0  0  0  0  0  0  0  0
   -6.8025   -0.0398    1.1295 C   0  0  0  0  0  0  0  0  0  0  0  0
   -5.6327   -0.6808    2.3463 S   0  0  0  0  0  0  0  0  0  0  0  0
  1  2  1  0
  2  3  2  0
  3  4  1  0
  4  5  1  0
  3  6  1  0
  6  7  1  0
  7  8  2  0
  8  9  1  0
  9 10  1  0
  8 11  1  0
 11 12  1  0
 12 13  2  0
 12 14  1  0
 14 15  2  0
 15 16  1  0
 16 17  2  0
 17 18  1  0
 18 19  2  0
 18 20  1  0
 20 21  1  0
 21 22  2  0
 21 23  1  0
 23 24  1  0
  5  1  2  0
 10  6  2  0
 19 14  1  0
 24 17  1  0
M  END
$$$$
