
     RDKit          3D

 18 20  0  0  0  0  0  0  0  0999 V2000
   -3.7292    1.5933   -0.2602 C   0  0  0  0  0  0  0  0  0  0  0  0
   -3.4200    0.4511   -1.2215 C   0  0  0  0  0  0  0  0  0  0  0  0
   -1.9511    0.0413   -1.3156 C   0  0  0  0  0  0  0  0  0  0  0  0
   -1.1007    0.1620   -0.0416 C   0  0  0  0  0  0  0  0  0  0  0  0
   -1.7631   -0.3343    1.2591 C   0  0  1  0  0  0  0  0  0  0  0  0
   -2.6338    0.7436    1.9156 C   0  0  0  0  0  0  0  0  0  0  0  0
   -3.9174    1.1211    1.1800 C   0  0  0  0  0  0  0  0  0  0  0  0
   -2.5458   -1.5091    1.0552 O   0  0  0  0  0  0  0  0  0  0  0  0
    0.2072   -0.5359   -0.2468 C   0  0  0  0  0  0  0  0  0  0  0  0
    1.4132   -0.0293   -0.3659 N   0  0  0  0  0  0  0  0  0  0  0  0
    2.1883   -1.1540   -0.5056 C   0  0  0  0  0  0  0  0  0  0  0  0
    1.5064   -2.3083   -0.4861 N   0  0  0  0  0  0  0  0  0  0  0  0
    0.1854   -1.8998   -0.3123 O   0  0  0  0  0  0  0  0  0  0  0  0
    3.6691   -1.1221   -0.6805 C   0  0  1  0  0  0  0  0  0  0  0  0
    4.2210    0.2404   -1.0516 C   0  0  0  0  0  0  0  0  0  0  0  0
    4.4341    0.8960    0.2958 C   0  0  0  0  0  0  0  0  0  0  0  0
    4.7862   -0.1519    1.2072 O   0  0  0  0  0  0  0  0  0  0  0  0
    4.4035   -1.4099    0.6228 C   0  0  0  0  0  0  0  0  0  0  0  0
  1  2  1  0
  2  3  1  0
  3  4  1  0
  4  5  1  0
  5  6  1  0
  6  7  1  0
  5  8  1  6
  4  9  1  0
  9 10  2  0
 10 11  1  0
 11 12  2  0
 12 13  1  0
 14 11  1  1
 14 15  1  0
 15 16  1  0
 16 17  1  0
 17 18  1  0
  7  1  1  0
 13  9  1  0
 18 14  1  0
M  END
$$$$
