
     RDKit          3D

 17 18  0  0  0  0  0  0  0  0999 V2000
    1.0543   -1.4423    0.6090 C   0  0  0  0  0  0  0  0  0  0  0  0
   -0.3047   -1.4895    0.9386 C   0  0  0  0  0  0  0  0  0  0  0  0
   -1.1801   -0.5008    0.4890 C   0  0  0  0  0  0  0  0  0  0  0  0
   -0.6773    0.5771   -0.2485 C   0  0  0  0  0  0  0  0  0  0  0  0
    0.6776    0.6063   -0.5984 C   0  0  0  0  0  0  0  0  0  0  0  0
    1.5533   -0.3997   -0.1717 C   0  0  0  0  0  0  0  0  0  0  0  0
    2.9004   -0.2850   -0.5592 N   0  0  0  0  0  0  0  0  0  0  0  0
    3.9485   -1.1433   -0.2654 C   0  0  0  0  0  0  0  0  0  0  0  0
    3.9101   -2.1722    0.3907 O   0  0  0  0  0  0  0  0  0  0  0  0
    5.2741   -0.6542   -0.8846 C   0  0  0  0  0  0  0  0  0  0  0  0
    5.2525    0.3886   -1.5351 O   0  0  0  0  0  0  0  0  0  0  0  0
    6.6329   -1.6698   -0.5658 Cl  0  0  0  0  0  0  0  0  0  0  0  0
   -1.4101    1.6502   -0.6924 O   0  0  0  0  0  0  0  0  0  0  0  0
   -2.4438    2.0461    0.2108 C   0  0  0  0  0  0  0  0  0  0  0  0
   -3.7095    1.2377   -0.0164 C   0  0  0  0  0  0  0  0  0  0  0  0
   -3.4139   -0.2450   -0.1621 C   0  0  0  0  0  0  0  0  0  0  0  0
   -2.4938   -0.6864    0.8370 O   0  0  0  0  0  0  0  0  0  0  0  0
  1  2  2  0
  2  3  1  0
  3  4  2  0
  4  5  1  0
  5  6  2  0
  6  7  1  0
  7  8  1  0
  8  9  2  0
  8 10  1  0
 10 11  2  0
 10 12  1  0
  4 13  1  0
 13 14  1  0
 14 15  1  0
 15 16  1  0
 16 17  1  0
  6  1  1  0
 17  3  1  0
M  END
$$$$
