
     RDKit          3D

 24 26  0  0  0  0  0  0  0  0999 V2000
    5.0965   -1.7947    0.3214 C   0  0  0  0  0  0  0  0  0  0  0  0
    4.8989   -0.3024    0.5392 C   0  0  0  0  0  0  0  0  0  0  0  0
    3.6528    0.2044   -0.1031 C   0  0  0  0  0  0  0  0  0  0  0  0
    3.5182    0.7889   -1.3923 C   0  0  0  0  0  0  0  0  0  0  0  0
    2.2596    1.1557   -1.6498 N   0  0  0  0  0  0  0  0  0  0  0  0
    1.5664    0.7512   -0.5606 N   0  0  0  0  0  0  0  0  0  0  0  0
    2.3706    0.2166    0.4194 C   0  0  0  0  0  0  0  0  0  0  0  0
    1.8367   -0.2375    1.7324 C   0  0  0  0  0  0  0  0  0  0  0  0
    0.1427    1.0516   -0.4680 C   0  0  0  0  0  0  0  0  0  0  0  0
   -0.7347   -0.1827   -0.5865 C   0  0  0  0  0  0  0  0  0  0  0  0
   -0.2840   -1.2810   -0.9327 O   0  0  0  0  0  0  0  0  0  0  0  0
   -2.1095   -0.0159   -0.3447 N   0  0  0  0  0  0  0  0  0  0  0  0
   -2.8315   -1.2707   -0.1120 C   0  0  0  0  0  0  0  0  0  0  0  0
   -4.2814   -1.0044   -0.1298 C   0  0  0  0  0  0  0  0  0  0  0  0
   -4.9001    0.2177   -0.0696 C   0  0  0  0  0  0  0  0  0  0  0  0
   -6.2625    0.0844   -0.1369 N   0  0  0  0  0  0  0  0  0  0  0  0
   -6.4661   -1.2149   -0.1866 C   0  0  0  0  0  0  0  0  0  0  0  0
   -5.2906   -1.9188   -0.1808 N   0  0  0  0  0  0  0  0  0  0  0  0
   -4.1499    1.4928   -0.0007 C   0  0  0  0  0  0  0  0  0  0  0  0
   -2.6605    1.2269    0.3392 C   0  0  1  0  0  0  0  0  0  0  0  0
   -2.4067    1.2900    1.8816 C   0  0  0  0  0  0  0  0  0  0  0  0
   -1.5777    0.4407    2.3270 O   0  0  0  0  0  0  0  0  0  0  0  0
   -2.9807    2.2307    2.4975 O   0  0  0  0  0  0  0  0  0  0  0  0
    4.5790    1.0297   -2.4001 C   0  0  0  0  0  0  0  0  0  0  0  0
  1  2  1  0
  2  3  1  0
  3  4  1  0
  4  5  2  0
  5  6  1  0
  6  7  1  0
  7  8  1  0
  6  9  1  0
  9 10  1  0
 10 11  2  0
 10 12  1  0
 12 13  1  0
 13 14  1  0
 14 15  2  0
 15 16  1  0
 16 17  2  0
 17 18  1  0
 15 19  1  0
 19 20  1  0
 20 21  1  1
 21 22  2  0
 21 23  1  0
  4 24  1  0
  7  3  2  0
 20 12  1  0
 18 14  1  0
M  CHG  1  23  -1
M  END
$$$$
